                                                             /*--------------------------------*- C++ -*----------------------------------*\
  =========                 |
  \\      /  F ield         | OpenFOAM: The Open Source CFD Toolbox
   \\    /   O peration     | Website:  https://openfoam.org
    \\  /    A nd           | Version:  6
     \\/     M anipulation  |
\*---------------------------------------------------------------------------*/
FoamFile
{
    version     2.0;
    format      ascii;
    class       volScalarField;
    object      g;
}
// * * * * * * * * * * * * * * * * * * * * * * * * * * * * * * * * * * * * * //

dimensions      [0 0 -1 0 0 0 0];

internalField   uniform 0.01;

boundaryField
{
    rotor
    {
        type            zeroGradient;
    }

    stator
    {
        type            zeroGradient;

    }

    // top
    // {
    //     type            zeroGradient;
    // }

    top
    {
         type            fixedValue;
         value           uniform 0.0;
    }


}

// ************************************************************************* //
